UNK
  chem.cr 10182314273D

 47 50  0  0  0  0  0  0  0  0999 V2000
   -4.5158    0.1775    0.6049 C   0  0  0  0  0  0  0  0  0  0  0  0
   -3.9586    1.0905    1.5042 C   0  0  0  0  0  0  0  0  0  0  0  0
   -2.5754    1.1611    1.6590 C   0  0  0  0  0  0  0  0  0  0  0  0
   -1.8977    2.0095    2.4943 O   0  0  0  0  0  0  0  0  0  0  0  0
   -2.6901    2.8198    3.3545 C   0  0  0  0  0  0  0  0  0  0  0  0
   -1.7629    0.3100    0.9035 C   0  0  0  0  0  0  0  0  0  0  0  0
   -2.3005   -0.6100   -0.0138 C   0  0  0  0  0  0  0  0  0  0  0  0
   -1.4152   -1.4793   -0.8050 C   0  0  0  0  0  0  0  0  0  0  0  0
   -1.5561   -2.8721   -0.7907 C   0  0  0  0  0  0  0  0  0  0  0  0
   -0.6843   -3.6814   -1.5186 C   0  0  0  0  0  0  0  0  0  0  0  0
    0.3492   -3.1070   -2.2615 C   0  0  0  0  0  0  0  0  0  0  0  0
    0.5391   -1.7175   -2.2985 C   0  0  0  0  0  0  0  0  0  0  0  0
    1.6569   -1.0875   -3.1065 C   0  0  0  0  0  0  0  0  0  0  0  0
    3.0624   -1.6250   -2.9665 C   0  0  0  0  0  0  0  0  0  0  0  0
    2.7586   -0.2306   -2.4944 C   0  0  0  0  0  0  0  0  0  0  0  0
    2.7290    0.1364   -1.0632 C   0  0  0  0  0  0  0  0  0  0  0  0
    1.9814    1.2619   -0.8254 N   0  0  0  0  0  0  0  0  0  0  0  0
    1.8011    1.6486    0.4012 C   0  0  0  0  0  0  0  0  0  0  0  0
    0.9911    2.7206    0.5845 N   0  0  0  0  0  0  0  0  0  0  0  0
    2.3721    1.0135    1.4842 N   0  0  0  0  0  0  0  0  0  0  0  0
    2.1485    1.4783    2.8408 C   0  0  0  0  0  0  0  0  0  0  0  0
    3.2010   -0.0738    1.2980 C   0  0  0  0  0  0  0  0  0  0  0  0
    3.7954   -0.6750    2.1904 O   0  0  0  0  0  0  0  0  0  0  0  0
    3.3611   -0.5260   -0.0885 C   0  0  0  0  0  0  0  0  0  0  0  0
   -0.3791   -0.9290   -1.5824 C   0  0  0  0  0  0  0  0  0  0  0  0
   -3.6939   -0.6651   -0.1473 C   0  0  0  0  0  0  0  0  0  0  0  0
   -5.5951    0.1257    0.4839 H   0  0  0  0  0  0  0  0  0  0  0  0
   -4.6326    1.7308    2.0627 H   0  0  0  0  0  0  0  0  0  0  0  0
   -3.3144    2.2069    4.0132 H   0  0  0  0  0  0  0  0  0  0  0  0
   -3.2954    3.5284    2.7798 H   0  0  0  0  0  0  0  0  0  0  0  0
   -2.0098    3.3997    3.9857 H   0  0  0  0  0  0  0  0  0  0  0  0
   -0.6852    0.3560    1.0393 H   0  0  0  0  0  0  0  0  0  0  0  0
   -2.3387   -3.3381   -0.1962 H   0  0  0  0  0  0  0  0  0  0  0  0
   -0.8027   -4.7615   -1.4995 H   0  0  0  0  0  0  0  0  0  0  0  0
    1.0202   -3.7559   -2.8199 H   0  0  0  0  0  0  0  0  0  0  0  0
    1.3588   -0.7929   -4.1118 H   0  0  0  0  0  0  0  0  0  0  0  0
    3.2453   -2.4116   -2.2446 H   0  0  0  0  0  0  0  0  0  0  0  0
    3.6499   -1.7322   -3.8720 H   0  0  0  0  0  0  0  0  0  0  0  0
    3.1356    0.5766   -3.1185 H   0  0  0  0  0  0  0  0  0  0  0  0
    0.5977    2.9779    1.4760 H   0  0  0  0  0  0  0  0  0  0  0  0
    0.5673    3.1142   -0.2457 H   0  0  0  0  0  0  0  0  0  0  0  0
    2.7216    0.9125    3.5795 H   0  0  0  0  0  0  0  0  0  0  0  0
    1.0828    1.3851    3.0729 H   0  0  0  0  0  0  0  0  0  0  0  0
    2.4266    2.5349    2.9085 H   0  0  0  0  0  0  0  0  0  0  0  0
    3.9706   -1.4014   -0.2534 H   0  0  0  0  0  0  0  0  0  0  0  0
   -0.2711    0.1544   -1.6265 H   0  0  0  0  0  0  0  0  0  0  0  0
   -4.1484   -1.3577   -0.8526 H   0  0  0  0  0  0  0  0  0  0  0  0
  1  2  2  0  0  0  0
  1 26  1  0  0  0  0
  1 27  1  0  0  0  0
  2  3  1  0  0  0  0
  2 28  1  0  0  0  0
  3  4  1  0  0  0  0
  3  6  2  0  0  0  0
  4  5  1  0  0  0  0
  5 29  1  0  0  0  0
  5 30  1  0  0  0  0
  5 31  1  0  0  0  0
  6  7  1  0  0  0  0
  6 32  1  0  0  0  0
  7  8  1  0  0  0  0
  7 26  2  0  0  0  0
  8  9  2  0  0  0  0
  8 25  1  0  0  0  0
  9 10  1  0  0  0  0
  9 33  1  0  0  0  0
 10 11  2  0  0  0  0
 10 34  1  0  0  0  0
 11 12  1  0  0  0  0
 11 35  1  0  0  0  0
 12 13  1  0  0  0  0
 12 25  2  0  0  0  0
 13 14  1  0  0  0  0
 13 15  1  0  0  0  0
 13 36  1  0  0  0  0
 14 15  1  0  0  0  0
 14 37  1  0  0  0  0
 14 38  1  0  0  0  0
 15 16  1  0  0  0  0
 15 39  1  0  0  0  0
 16 17  1  0  0  0  0
 16 24  2  0  0  0  0
 17 18  2  0  0  0  0
 18 19  1  0  0  0  0
 18 20  1  0  0  0  0
 19 40  1  0  0  0  0
 19 41  1  0  0  0  0
 20 21  1  0  0  0  0
 20 22  1  0  0  0  0
 21 42  1  0  0  0  0
 21 43  1  0  0  0  0
 21 44  1  0  0  0  0
 22 23  2  0  0  0  0
 22 24  1  0  0  0  0
 24 45  1  0  0  0  0
 25 46  1  0  0  0  0
 26 47  1  0  0  0  0
M  END
> <CID>  (1)
102

> <ENERGY>  (1)
-69.24183860618292

$$$$
UNK
  chem.cr 10182314273D

 47 50  0  0  0  0  0  0  0  0999 V2000
   -4.5158    0.1805    0.6162 C   0  0  0  0  0  0  0  0  0  0  0  0
   -3.9573    1.1094    1.4982 C   0  0  0  0  0  0  0  0  0  0  0  0
   -2.5736    1.1866    1.6457 C   0  0  0  0  0  0  0  0  0  0  0  0
   -1.8948    2.0498    2.4646 O   0  0  0  0  0  0  0  0  0  0  0  0
   -2.6858    2.8752    3.3116 C   0  0  0  0  0  0  0  0  0  0  0  0
   -1.7620    0.3259    0.9001 C   0  0  0  0  0  0  0  0  0  0  0  0
   -2.3008   -0.6102   -0.0002 C   0  0  0  0  0  0  0  0  0  0  0  0
   -1.4165   -1.4896   -0.7817 C   0  0  0  0  0  0  0  0  0  0  0  0
   -1.5572   -2.8821   -0.7490 C   0  0  0  0  0  0  0  0  0  0  0  0
   -0.6870   -3.7008   -1.4682 C   0  0  0  0  0  0  0  0  0  0  0  0
    0.3447   -3.1362   -2.2210 C   0  0  0  0  0  0  0  0  0  0  0  0
    0.5343   -1.7472   -2.2768 C   0  0  0  0  0  0  0  0  0  0  0  0
    1.6501   -1.1277   -3.0956 C   0  0  0  0  0  0  0  0  0  0  0  0
    3.0560   -1.6634   -2.9527 C   0  0  0  0  0  0  0  0  0  0  0  0
    2.7533   -0.2635   -2.4967 C   0  0  0  0  0  0  0  0  0  0  0  0
    2.7277    0.1202   -1.0698 C   0  0  0  0  0  0  0  0  0  0  0  0
    1.9834    1.2503   -0.8431 N   0  0  0  0  0  0  0  0  0  0  0  0
    1.8054    1.6506    0.3796 C   0  0  0  0  0  0  0  0  0  0  0  0
    0.9991    2.7271    0.5520 N   0  0  0  0  0  0  0  0  0  0  0  0
    2.3752    1.0246    1.4687 N   0  0  0  0  0  0  0  0  0  0  0  0
    2.1522    1.5024    2.8209 C   0  0  0  0  0  0  0  0  0  0  0  0
    3.2026   -0.0655    1.2930 C   0  0  0  0  0  0  0  0  0  0  0  0
    3.7971   -0.6589    2.1907 O   0  0  0  0  0  0  0  0  0  0  0  0
    3.3602   -0.5325   -0.0889 C   0  0  0  0  0  0  0  0  0  0  0  0
   -0.3823   -0.9494   -1.5687 C   0  0  0  0  0  0  0  0  0  0  0  0
   -3.6947   -0.6714   -0.1264 C   0  0  0  0  0  0  0  0  0  0  0  0
   -5.5955    0.1231    0.5011 H   0  0  0  0  0  0  0  0  0  0  0  0
   -4.6308    1.7564    2.0496 H   0  0  0  0  0  0  0  0  0  0  0  0
   -3.2921    3.5732    2.7251 H   0  0  0  0  0  0  0  0  0  0  0  0
   -2.0045    3.4658    3.9316 H   0  0  0  0  0  0  0  0  0  0  0  0
   -3.3093    2.2742    3.9818 H   0  0  0  0  0  0  0  0  0  0  0  0
   -0.6839    0.3772    1.0305 H   0  0  0  0  0  0  0  0  0  0  0  0
   -2.3383   -3.3405   -0.1467 H   0  0  0  0  0  0  0  0  0  0  0  0
   -0.8052   -4.7806   -1.4345 H   0  0  0  0  0  0  0  0  0  0  0  0
    1.0143   -3.7923   -2.7726 H   0  0  0  0  0  0  0  0  0  0  0  0
    1.3495   -0.8458   -4.1037 H   0  0  0  0  0  0  0  0  0  0  0  0
    3.2405   -2.4414   -2.2220 H   0  0  0  0  0  0  0  0  0  0  0  0
    3.6411   -1.7818   -3.8583 H   0  0  0  0  0  0  0  0  0  0  0  0
    3.1287    0.5361   -3.1314 H   0  0  0  0  0  0  0  0  0  0  0  0
    0.5762    3.1135   -0.2820 H   0  0  0  0  0  0  0  0  0  0  0  0
    0.6085    2.9969    1.4409 H   0  0  0  0  0  0  0  0  0  0  0  0
    2.7122    0.9322    3.5666 H   0  0  0  0  0  0  0  0  0  0  0  0
    1.0840    1.4290    3.0488 H   0  0  0  0  0  0  0  0  0  0  0  0
    2.4484    2.5547    2.8822 H   0  0  0  0  0  0  0  0  0  0  0  0
    3.9675   -1.4111   -0.2450 H   0  0  0  0  0  0  0  0  0  0  0  0
   -0.2745    0.1333   -1.6275 H   0  0  0  0  0  0  0  0  0  0  0  0
   -4.1504   -1.3765   -0.8185 H   0  0  0  0  0  0  0  0  0  0  0  0
  1  2  2  0  0  0  0
  1 26  1  0  0  0  0
  1 27  1  0  0  0  0
  2  3  1  0  0  0  0
  2 28  1  0  0  0  0
  3  4  1  0  0  0  0
  3  6  2  0  0  0  0
  4  5  1  0  0  0  0
  5 29  1  0  0  0  0
  5 30  1  0  0  0  0
  5 31  1  0  0  0  0
  6  7  1  0  0  0  0
  6 32  1  0  0  0  0
  7  8  1  0  0  0  0
  7 26  2  0  0  0  0
  8  9  2  0  0  0  0
  8 25  1  0  0  0  0
  9 10  1  0  0  0  0
  9 33  1  0  0  0  0
 10 11  2  0  0  0  0
 10 34  1  0  0  0  0
 11 12  1  0  0  0  0
 11 35  1  0  0  0  0
 12 13  1  0  0  0  0
 12 25  2  0  0  0  0
 13 14  1  0  0  0  0
 13 15  1  0  0  0  0
 13 36  1  0  0  0  0
 14 15  1  0  0  0  0
 14 37  1  0  0  0  0
 14 38  1  0  0  0  0
 15 16  1  0  0  0  0
 15 39  1  0  0  0  0
 16 17  1  0  0  0  0
 16 24  2  0  0  0  0
 17 18  2  0  0  0  0
 18 19  1  0  0  0  0
 18 20  1  0  0  0  0
 19 40  1  0  0  0  0
 19 41  1  0  0  0  0
 20 21  1  0  0  0  0
 20 22  1  0  0  0  0
 21 42  1  0  0  0  0
 21 43  1  0  0  0  0
 21 44  1  0  0  0  0
 22 23  2  0  0  0  0
 22 24  1  0  0  0  0
 24 45  1  0  0  0  0
 25 46  1  0  0  0  0
 26 47  1  0  0  0  0
M  END
> <CID>  (2)
24

> <ENERGY>  (2)
-69.24036386665641

$$$$
